buckminsterfullerene built using Jmol ModelKit mode
__Jmol-14_03241721273D 1   1.00000     0.00000     0
Jmol version 14.6.1_2016.07.11  2016-07-11 18:22 EXTRACT: ({0:2 4 6 7 9 10 18 19 27 28 32 33 39:42 48 49 53 54 65 66 70 71 77 78 89 90 97 99 104 105 109 110 122 144 146 166 170 171 174 175 180 181 188 198 201 202 208 220 233 238 250 268 271 274 276 278})
 60 90  0  0  0  0              1 V2000
  -0.75390   0.97875   0.43979 C   0  0  0  0  0  0
  -1.22565   0.78965  -0.86238 C   0  0  0  0  0  0
   0.14584   2.04764   0.42394 C   0  0  0  0  0  0
  -0.50141  -0.14266   1.26977 C   0  0  0  0  0  0
  -1.45049  -0.52357  -1.34943 C   0  0  0  0  0  0
  -0.61676   1.74228  -1.68359 C   0  0  0  0  0  0
  -0.22579   1.39180  -3.00100 C   0  0  0  0  0  0
   0.23076   2.51950  -0.88845 C   0  0  0  0  0  0
   1.47887   2.95541  -1.40090 C   0  0  0  0  0  0
   1.30733   2.00707   1.23792 C   0  0  0  0  0  0
   1.55225   0.90170   2.05485 C   0  0  0  0  0  0
   2.53452   2.43804   0.73058 C   0  0  0  0  0  0
   2.62042   2.91485  -0.59691 C   0  0  0  0  0  0
   1.86092   2.60890  -2.69806 C   0  0  0  0  0  0
   3.53366   1.60320   1.23555 C   0  0  0  0  0  0
   3.70406   2.54776  -1.39634 C   0  0  0  0  0  0
   1.00399   1.82287  -3.50245 C   0  0  0  0  0  0
  -0.44927   0.09813  -3.47837 C   0  0  0  0  0  0
   3.23425   2.35875  -2.69435 C   0  0  0  0  0  0
   1.53597   0.79989  -4.28912 C   0  0  0  0  0  0
  -1.06551  -0.86564  -2.64763 C   0  0  0  0  0  0
  -1.20084  -1.62571  -0.52897 C   0  0  0  0  0  0
   0.63833  -0.26592  -4.27459 C   0  0  0  0  0  0
  -0.58301  -2.17614  -2.62813 C   0  0  0  0  0  0
  -0.72360  -1.43367   0.78771 C   0  0  0  0  0  0
   0.64248  -0.17928   2.07039 C   0  0  0  0  0  0
  -0.66669  -2.64532  -1.31873 C   0  0  0  0  0  0
   0.27879  -2.26427   1.29204 C   0  0  0  0  0  0
   2.92658   0.65358   2.05429 C   0  0  0  0  0  0
   1.12272  -1.48963   2.08477 C   0  0  0  0  0  0
   0.50979  -2.55832  -3.44447 C   0  0  0  0  0  0
   0.34014  -3.50231  -0.80991 C   0  0  0  0  0  0
   0.81574  -3.31057   0.50426 C   0  0  0  0  0  0
   1.38399  -3.93755  -1.64050 C   0  0  0  0  0  0
   1.12464  -1.59645  -4.27343 C   0  0  0  0  0  0
   1.46933  -3.46321  -2.96292 C   0  0  0  0  0  0
   2.74283  -2.99053  -3.49100 C   0  0  0  0  0  0
   2.18425  -3.61519   0.57307 C   0  0  0  0  0  0
   2.50385  -1.84420  -4.35849 C   0  0  0  0  0  0
   2.51493  -1.75147   2.10018 C   0  0  0  0  0  0
   4.64537   1.23834   0.43710 C   0  0  0  0  0  0
   4.73057   1.71415  -0.88831 C   0  0  0  0  0  0
   3.78468   1.33381  -3.50080 C   0  0  0  0  0  0
   2.92977   0.54921  -4.30327 C   0  0  0  0  0  0
   3.03762  -2.83285   1.37432 C   0  0  0  0  0  0
   3.42357  -0.67247   2.08498 C   0  0  0  0  0  0
   4.56832  -1.01604   1.34829 C   0  0  0  0  0  0
   5.18185  -0.05628   0.52061 C   0  0  0  0  0  0
   5.32501   0.74527  -1.71141 C   0  0  0  0  0  0
   4.84962   0.55459  -3.02296 C   0  0  0  0  0  0
   3.41008  -0.76720  -4.37402 C   0  0  0  0  0  0
   5.56678  -0.40008  -0.84281 C   0  0  0  0  0  0
   4.59475  -0.78931  -3.52488 C   0  0  0  0  0  0
   4.31299  -2.36149   0.84877 C   0  0  0  0  0  0
   2.56739  -3.96151  -0.78932 C   0  0  0  0  0  0
   4.61015  -2.63199  -0.45160 C   0  0  0  0  0  0
   3.72521  -3.44259  -1.28151 C   0  0  0  0  0  0
   3.81329  -2.94996  -2.65113 C   0  0  0  0  0  0
   4.75276  -1.83471  -2.66812 C   0  0  0  0  0  0
   5.24558  -1.63775  -1.30900 C   0  0  0  0  0  0
  1  4  2  0  0  0
  1  2  1  0  0  0
  3  1  1  0  0  0
  5  2  2  0  0  0
  6  2  1  0  0  0
  7  6  2  0  0  0
  8  6  1  0  0  0
  8  3  1  0  0  0
  9  8  2  0  0  0
 10  3  2  0  0  0
 11 10  1  0  0  0
 12 10  1  0  0  0
 13  9  1  0  0  0
 14  9  1  0  0  0
 13 12  2  0  0  0
 15 12  1  0  0  0
 16 13  1  0  0  0
 17  7  1  0  0  0
 18  7  1  0  0  0
 17 14  2  0  0  0
 19 14  1  0  0  0
 20 17  1  0  0  0
 21  5  1  0  0  0
 22  5  1  0  0  0
 18 21  2  0  0  0
 23 18  1  0  0  0
 24 21  1  0  0  0
 25  4  1  0  0  0
 26  4  1  0  0  0
 22 25  2  0  0  0
 27 22  1  0  0  0
 28 25  1  0  0  0
 11 26  2  0  0  0
 29 11  1  0  0  0
 30 26  1  0  0  0
 24 27  1  0  0  0
 31 24  2  0  0  0
 32 27  2  0  0  0
 33 32  1  0  0  0
 34 32  1  0  0  0
 35 31  1  0  0  0
 36 31  1  0  0  0
 34 36  2  0  0  0
 37 36  1  0  0  0
 28 33  2  0  0  0
 23 35  2  0  0  0
 38 33  1  0  0  0
 39 35  1  0  0  0
 30 28  1  0  0  0
 40 30  2  0  0  0
 29 15  1  0  0  0
 41 15  2  0  0  0
 16 19  1  0  0  0
 42 16  2  0  0  0
 43 19  2  0  0  0
 20 23  1  0  0  0
 44 20  2  0  0  0
 45 40  1  0  0  0
 46 40  1  0  0  0
 46 29  2  0  0  0
 47 46  1  0  0  0
 48 41  1  0  0  0
 49 42  1  0  0  0
 50 43  1  0  0  0
 51 44  1  0  0  0
 49 50  2  0  0  0
 52 49  1  0  0  0
 51 39  2  0  0  0
 53 51  1  0  0  0
 43 44  1  0  0  0
 41 42  1  0  0  0
 48 47  2  0  0  0
 54 47  1  0  0  0
 45 38  2  0  0  0
 55 38  1  0  0  0
 54 45  1  0  0  0
 56 54  2  0  0  0
 55 34  1  0  0  0
 57 55  2  0  0  0
 37 39  1  0  0  0
 58 37  2  0  0  0
 53 50  1  0  0  0
 59 53  2  0  0  0
 52 48  1  0  0  0
 60 52  2  0  0  0
 60 59  1  0  0  0
 59 58  1  0  0  0
 58 57  1  0  0  0
 57 56  1  0  0  0
 56 60  1  0  0  0
M  END
